* PSpice Model Editor - Version 17.4.0
*$
*BeginSpec
*IF: (2.8782,1.0401E-3) (2.9622,1.6901E-3) (3.0532,2.9325E-3) (3.1583,5.2923E-3) (3.2913,10.470E-3) (3.4664,15.118E-3) (3.5784,19.913E-3) (3.7955,28.009E-3) (4.0126,37.381E-3)
*IF: (4.2157,49.889E-3) (4.4748,71.097E-3) (4.6849,94.887E-3)
*JC:
*RL:
*RB: Vz=0 Iz=0 Zz=0
*RR: Trr=0 Ifwd=10.000E-3 Irev=10.000E-3 Rl=100
*EndSpec
*BeginTrace
*IF: 1,0,.4,4.6849,1,3,0,0,-1 (27)
*JC: 0,1,.1,10,1,3,0,0,-1 (27)
*RL: 0,0,1,100,1,3,0,0,-1 (27)
*RB: 0,1,100.00E-6,1,1,3,0,0,-1 (27)
*RR: 0,0,-5.0000E-9,20.000E-9,1,3,0,0,-1 (27)
*EndTrace
*BeginParam
*IS=295.24E-15 (10.000E-21,.1,0)
*N=4.9999 (.2,5,0)
*RS=9.9622 (1.0000E-6,100,0)
*IKF=4.8545E-3 (0,1.0000E3,0)
*XTI=3 (-100,100,0)
*EG=1.1100 (.1,5.5100,0)
*CJO=1.0000E-12 (10.000E-21,1.0000E-3,0)
*M=.3333 (.1,10,0)
*VJ=.75 (.3905,10,0)
*FC=.5 (1.0000E-3,10,0)
*ISR=100.00E-12 (10.000E-21,.1,0)
*NR=2 (.5,5,0)
*BV=100 (.1,1.0000E6,0)
*IBV=100.00E-6 (1.0000E-9,10,0)
*TT=5.0000E-9 (100.00E-18,1.0000E-3,0)
*EndParam
*DEVICE=BLUE_LED,D
* BLUE_LED D model
* created using Model Editor release 17.4.0 on 05/13/22 at 21:11
* The Model Editor is a PSpice product.
.MODEL BLUE_LED D
+ IS=295.24E-15
+ N=4.9999
+ RS=9.9622
*$
