* PSpice Model Editor - Version 17.4.0
*$
*BeginSpec
*IF: (2.7788,1.0393E-3) (2.8324,1.6729E-3) (2.9129,3.0622E-3) (2.9879,5.0572E-3) (3.0737,7.6328E-3) (3.1756,11.084E-3) (3.2882,20.552E-3) (3.4062,26.926E-3) (3.5027,34.826E-3)
*IF: (3.6260,51.227E-3) (3.8083,68.863E-3) (4.0228,98.722E-3)
*JC:
*RL:
*RB: Vz=0 Iz=0 Zz=0
*RR: Trr=0 Ifwd=10.000E-3 Irev=10.000E-3 Rl=100
*EndSpec
*BeginTrace
*IF: 1,0,.4,4.0228,1,3,0,0,-1 (27)
*JC: 0,1,.1,10,1,3,0,0,-1 (27)
*RL: 0,0,1,100,1,3,0,0,-1 (27)
*RB: 0,1,100.00E-6,1,1,3,0,0,-1 (27)
*RR: 0,0,-5.0000E-9,20.000E-9,1,3,0,0,-1 (27)
*EndTrace
*BeginParam
*IS=1.1033E-15 (10.000E-21,.1,0)
*N=2.7613 (.2,5,0)
*RS=6.4183 (1.0000E-6,100,0)
*IKF=18.059E-9 (0,1.0000E3,0)
*XTI=3 (-100,100,0)
*EG=1.1100 (.1,5.5100,0)
*CJO=1.0000E-12 (10.000E-21,1.0000E-3,0)
*M=.3333 (.1,10,0)
*VJ=.75 (.3905,10,0)
*FC=.5 (1.0000E-3,10,0)
*ISR=100.00E-12 (10.000E-21,.1,0)
*NR=2 (.5,5,0)
*BV=100 (.1,1.0000E6,0)
*IBV=100.00E-6 (1.0000E-9,10,0)
*TT=5.0000E-9 (100.00E-18,1.0000E-3,0)
*EndParam
*DEVICE=GREEN_LED,D
* GREEN_LED D model
* created using Model Editor release 17.4.0 on 05/13/22 at 21:17
* The Model Editor is a PSpice product.
.MODEL GREEN_LED D
+ IS=1.1033E-15
+ N=2.7613
+ RS=6.4183
*$
