* PSpice Model Editor - Version 17.4.0
*$
*BeginSpec
*IF: (1.7639,1.0297E-3) (1.7825,1.3604E-3) (1.8049,1.7971E-3) (1.8198,2.4091E-3) (1.8272,3.2296E-3) (1.8533,4.3295E-3) (1.8682,5.8896E-3) (1.8906,7.8954E-3) (1.9017,10.741E-3)
*IF: (2.0135,27.438E-3) (2.0619,34.183E-3) (2.1066,40.755E-3) (2.1662,47.884E-3) (2.2184,59.656E-3) (2.2854,74.323E-3) (2.3488,88.612E-3) (1.9353,20.769E-3)
*JC:
*RL:
*RB: Vz=0 Iz=0 Zz=0
*RR: Trr=0 Ifwd=10.000E-3 Irev=10.000E-3 Rl=100
*EndSpec
*BeginTrace
*IF: 1,0,.4,2.3488,1,3,0,0,-1 (27)
*JC: 0,1,.1,10,1,3,0,0,-1 (27)
*RL: 0,0,1,100,1,3,0,0,-1 (27)
*RB: 0,1,100.00E-6,1,1,3,0,0,-1 (27)
*RR: 0,0,-5.0000E-9,20.000E-9,1,3,0,0,-1 (27)
*EndTrace
*BeginParam
*IS=10.000E-21 (10.000E-21,.1,0)
*N=1.7341 (.2,5,0)
*RS=4.4724 (1.0000E-6,100,0)
*IKF=10.696 (0,1.0000E3,0)
*XTI=3 (-100,100,0)
*EG=1.1100 (.1,5.5100,0)
*CJO=1.0000E-12 (10.000E-21,1.0000E-3,0)
*M=.3333 (.1,10,0)
*VJ=.75 (.3905,10,0)
*FC=.5 (1.0000E-3,10,0)
*ISR=100.00E-12 (10.000E-21,.1,0)
*NR=2 (.5,5,0)
*BV=100 (.1,1.0000E6,0)
*IBV=100.00E-6 (1.0000E-9,10,0)
*TT=5.0000E-9 (100.00E-18,1.0000E-3,0)
*EndParam
*DEVICE=RED_LED,D
* RED_LED D model
* updated using Model Editor release 17.4.0 on 05/13/22 at 19:55
* The Model Editor is a PSpice product.
.MODEL RED_LED D
+ IS=10.000E-21
+ N=1.7341
+ RS=4.4724
*$
