* PSpice Model Editor - Version 17.4.0
*$
*BeginSpec
*IF: (1.7655,959.36E-6) (1.8103,1.6226E-3) (1.8379,2.9004E-3) (1.8655,4.9739E-3) (1.8966,8.1830E-3) (2.0414,28.804E-3) (2.1310,41.843E-3) (2.2241,60.783E-3) (1.9207,14.426E-3)
*IF: (1.9517,19.557E-3) (2.3241,84.709E-3) (2.3931,.10716)
*JC:
*RL:
*RB: Vz=0 Iz=0 Zz=0
*RR: Trr=0 Ifwd=10.000E-3 Irev=10.000E-3 Rl=100
*EndSpec
*BeginTrace
*IF: 1,0,.4,2.3931,1,3,0,0,-1 (27)
*JC: 0,1,.1,10,1,3,0,0,-1 (27)
*RL: 0,0,1,100,1,3,0,0,-1 (27)
*RB: 0,1,100.00E-6,1,1,3,0,0,-1 (27)
*RR: 0,0,-5.0000E-9,20.000E-9,1,3,0,0,-1 (27)
*EndTrace
*BeginParam
*IS=10.000E-21 (10.000E-21,.1,0)
*N=1.7433 (.2,5,0)
*RS=3.3333 (1.0000E-6,100,0)
*IKF=20.512E-3 (0,1.0000E3,0)
*XTI=3 (-100,100,0)
*EG=1.1100 (.1,5.5100,0)
*CJO=1.0000E-12 (10.000E-21,1.0000E-3,0)
*M=.3333 (.1,10,0)
*VJ=.75 (.3905,10,0)
*FC=.5 (1.0000E-3,10,0)
*ISR=100.00E-12 (10.000E-21,.1,0)
*NR=2 (.5,5,0)
*BV=100 (.1,1.0000E6,0)
*IBV=100.00E-6 (1.0000E-9,10,0)
*TT=5.0000E-9 (100.00E-18,1.0000E-3,0)
*EndParam
*DEVICE=YELLOW_LED,D
* YELLOW_LED D model
* created using Model Editor release 17.4.0 on 05/13/22 at 21:24
* The Model Editor is a PSpice product.
.MODEL YELLOW_LED D
+ IS=10.000E-21
+ N=1.7433
+ RS=3.3333
*$
